<?xml version="1.0" encoding="UTF-8"?>
<sumoConfiguration xmlns:xsi="http://www.w3.org/2001/XMLSchema-instance" xsi:noNamespaceSchemaLocation="http://sumo.dlr.de/xsd/sumoConfiguration.xsd">

    <input>
        <net-file value="test.net.xml"/>
        <route-files value="car.rou.xml,motor.rou.xml"/>
    </input>

    <processing>
        <lateral-resolution value="0.2"/>
        <ignore-accidents value="true"/> 
    </processing>

</sumoConfiguration>